Version 4.1
SHEET 1 2652 1300
WIRE 2000 720 1200 720
WIRE 2208 720 2096 720
WIRE 2304 720 2288 720
WIRE 2320 720 2304 720
WIRE 2464 720 2400 720
WIRE 2016 784 2016 768
WIRE 2016 800 2016 784
WIRE 2048 800 2016 800
WIRE 2112 800 2048 800
WIRE 1776 848 1664 848
WIRE 1856 848 1776 848
WIRE 1888 848 1856 848
WIRE 2000 848 1888 848
WIRE 2016 848 2000 848
WIRE 1200 864 1200 720
WIRE 1376 864 1200 864
WIRE 2208 864 2208 720
WIRE 2240 864 2208 864
WIRE 2304 864 2304 720
WIRE 2304 864 2272 864
WIRE 2016 880 2016 848
WIRE 2048 880 2016 880
WIRE 2304 880 2304 864
WIRE 2320 880 2304 880
WIRE 1200 896 1200 864
WIRE 1248 896 1200 896
WIRE 2240 896 2240 864
WIRE 2272 896 2272 864
WIRE 1200 912 1200 896
WIRE 1728 912 1664 912
WIRE 2320 928 2320 880
WIRE 2112 944 2112 800
WIRE 2112 944 2080 944
WIRE 1248 960 1248 896
WIRE 1376 960 1248 960
WIRE 1760 976 1664 976
WIRE 1776 976 1760 976
WIRE 1888 992 1888 848
WIRE 2016 992 2016 880
WIRE 2016 992 1888 992
WIRE 2288 992 2288 928
WIRE 2288 992 2016 992
WIRE 2080 1008 2080 944
WIRE 2256 1008 2256 960
WIRE 2320 1008 2256 1008
WIRE 1856 1040 1856 848
WIRE 1856 1040 1824 1040
WIRE 2000 1040 2000 848
WIRE 2048 1040 2000 1040
WIRE 1824 1088 1824 1040
WIRE 2096 1120 2096 1072
WIRE 2256 1120 2256 1008
WIRE 2256 1120 2096 1120
WIRE 1200 1152 1200 992
WIRE 1520 1152 1520 1024
WIRE 1520 1152 1200 1152
WIRE 1824 1184 1824 1168
WIRE 2064 1184 2064 1072
WIRE 2064 1184 1824 1184
WIRE 1824 1200 1824 1184
FLAG 1200 1152 0
FLAG 1776 784 0
FLAG 1824 976 0
FLAG 2464 720 0
FLAG 2224 928 0
FLAG 2112 1040 0
FLAG 1824 1280 0
FLAG 1728 912 0
FLAG 1936 784 0
FLAG 2176 800 0
SYMBOL voltage 1200 896 R0
WINDOW 123 0 0 Left 0
WINDOW 39 0 0 Left 0
WINDOW 0 -118 18 Left 2
SYMATTR InstName Vsource1
SYMATTR Value 12V
SYMBOL PowerProducts\\LT1763 1520 912 R0
SYMATTR InstName U4
SYMBOL cap 1792 848 R180
WINDOW 0 24 56 Left 2
WINDOW 3 24 8 Left 2
SYMATTR InstName C4
SYMATTR Value 10µ
SYMBOL cap 1760 992 R270
WINDOW 0 32 32 VTop 2
WINDOW 3 0 32 VBottom 2
SYMATTR InstName C5
SYMATTR Value 1n
SYMBOL pmos 2096 768 M270
SYMATTR InstName M2
SYMATTR Value AO6407
SYMBOL res 2416 704 R90
WINDOW 0 0 56 VBottom 2
WINDOW 3 32 56 VTop 2
SYMATTR InstName RL
SYMATTR Value 0.30
SYMBOL res 2304 704 R90
WINDOW 0 0 56 VBottom 2
WINDOW 3 32 56 VTop 2
SYMATTR InstName RShunt1
SYMATTR Value 1m
SYMBOL OpAmps\\LT1013 2320 928 R90
SYMATTR InstName U5
SYMBOL res 2304 912 R0
SYMATTR InstName R5
SYMATTR Value 1k
SYMBOL Comparators\\LT1017 2080 1040 R270
SYMATTR InstName U8
SYMBOL res 1808 1072 R0
SYMATTR InstName R6
SYMATTR Value 22k
SYMBOL res 1808 1184 R0
SYMATTR InstName R7
SYMATTR Value 1k
SYMBOL res 2032 768 R90
WINDOW 0 0 56 VBottom 2
WINDOW 3 32 56 VTop 2
SYMATTR InstName R4
SYMATTR Value 100k
SYMBOL res 2032 784 R0
SYMATTR InstName R3
SYMATTR Value 25k
SYMBOL cap 2112 816 R270
WINDOW 0 32 32 VTop 2
WINDOW 3 0 32 VBottom 2
SYMATTR InstName C6
SYMATTR Value 100n
TEXT -336 616 Left 2 !.tran 20 startup
TEXT 2072 592 Left 2 ;0.33ohm=36A=3C discharge current\n<0.33ohm simulates overcurrent and \nshort circuit
